8

C         -1.21440        0.76460        0.00010
C          0.32130        0.70930        0.00010
H          0.68350        0.18750       -0.88850
H          0.73890        1.71860        0.00410
H          0.68350        0.18050        0.88460
H         -1.57660        1.29330       -0.88440
H         -1.63190       -0.24480       -0.00400
H         -1.57680        1.28630        0.88880
